
     RDKit          3D

 21 24  0  0  0  0  0  0  0  0999 V2000
  121.6060  106.4050  119.9300 C   0  0  0  0  0  0  0  0  0  0  0  0
  121.1420  106.2370  121.2630 O   0  0  0  0  0  0  0  0  0  0  0  0
  121.6680  105.0570  121.8690 C   0  0  0  0  0  0  0  0  0  0  0  0
  120.6570  104.0360  122.0080 O   0  0  0  0  0  0  0  0  0  0  0  0
  120.5770  103.2840  120.8070 C   0  0  0  0  0  0  0  0  0  0  0  0
  119.3720  102.5450  120.6480 O   0  0  0  0  0  0  0  0  0  0  0  0
  119.5310  101.7090  119.4860 C   0  0  0  0  0  0  0  0  0  0  0  0
  118.2450  101.8260  118.6680 C   0  0  0  0  0  0  0  0  0  0  0  0
  119.7640  100.2530  119.9070 C   0  0  0  0  0  0  0  0  0  0  0  0
  120.4930  100.1260  121.2440 C   0  0  0  0  0  0  0  0  0  0  0  0
  121.7680  100.9690  121.4240 C   0  0  0  0  0  0  0  0  0  0  0  0
  123.0760  100.1330  121.1640 C   0  0  0  0  0  0  0  0  0  0  0  0
  123.1440   99.3860  119.8250 C   0  0  0  0  0  0  0  0  0  0  0  0
  124.3640  100.9670  121.3610 C   0  0  0  0  0  0  0  0  0  0  0  0
  124.3230  102.3780  120.7550 C   0  0  0  0  0  0  0  0  0  0  0  0
  123.0520  103.0750  121.2300 C   0  0  0  0  0  0  0  0  0  0  0  0
  122.9030  104.5880  121.0200 C   0  0  0  0  0  0  0  0  0  0  0  0
  124.1390  105.4010  121.4030 C   0  0  0  0  0  0  0  0  0  0  0  0
  121.7940  102.3390  120.6770 C   0  0  0  0  0  0  0  0  0  0  0  0
  121.9130  102.0220  119.2750 O   0  0  0  0  0  0  0  0  0  0  0  0
  120.5940  102.1580  118.6120 O   0  0  0  0  0  0  0  0  0  0  0  0
  1  2  1  0
  2  3  1  0
  3  4  1  0
  4  5  1  0
  5  6  1  0
  6  7  1  0
  7  8  1  0
  7  9  1  0
  9 10  1  0
 10 11  1  0
 11 12  1  0
 12 13  1  0
 12 14  1  0
 14 15  1  0
 15 16  1  0
 16 17  1  0
 17 18  1  0
 16 19  1  0
 19 20  1  0
 20 21  1  0
 17  3  1  0
 19  5  1  0
 21  7  1  0
 19 11  1  0
M  END
$$$$
