
     RDKit          3D

 20 23  0  0  0  0  0  0  0  0999 V2000
   39.8380  154.5100   51.6540 C   0  0  0  0  0  0  0  0  0  0  0  0
   40.8450  153.5760   52.3390 C   0  0  0  0  0  0  0  0  0  0  0  0
   41.1440  154.0950   53.7700 C   0  0  0  0  0  0  0  0  0  0  0  0
   40.5190  153.2430   54.8790 C   0  0  0  0  0  0  0  0  0  0  0  0
   40.9070  151.7400   54.8160 C   0  0  0  0  0  0  0  0  0  0  0  0
   42.0870  151.4380   55.7780 C   0  0  0  0  0  0  0  0  0  0  0  0
   41.5890  151.2390   57.2160 C   0  0  0  0  0  0  0  0  0  0  0  0
   42.8900  150.2250   55.2900 C   0  0  0  0  0  0  0  0  0  0  0  0
   43.9590  149.9830   56.1880 O   0  0  0  0  0  0  0  0  0  0  0  0
   43.4770  150.4350   54.0200 O   0  0  0  0  0  0  0  0  0  0  0  0
   42.7380  151.2870   53.1420 C   0  0  0  0  0  0  0  0  0  0  0  0
   43.0770  150.9580   51.8100 O   0  0  0  0  0  0  0  0  0  0  0  0
   42.1940  149.9670   51.2930 C   0  0  0  0  0  0  0  0  0  0  0  0
   43.0750  149.0270   50.4640 C   0  0  0  0  0  0  0  0  0  0  0  0
   41.2050  150.6740   50.3580 C   0  0  0  0  0  0  0  0  0  0  0  0
   40.0650  151.4230   51.0360 C   0  0  0  0  0  0  0  0  0  0  0  0
   40.3490  152.1140   52.3840 C   0  0  0  0  0  0  0  0  0  0  0  0
   41.2060  151.2680   53.3630 C   0  0  0  0  0  0  0  0  0  0  0  0
   40.7110  149.9200   53.2080 O   0  0  0  0  0  0  0  0  0  0  0  0
   41.5820  149.1460   52.3000 O   0  0  0  0  0  0  0  0  0  0  0  0
  1  2  1  0
  2  3  1  0
  3  4  1  0
  4  5  1  0
  5  6  1  0
  6  7  1  0
  6  8  1  0
  8  9  1  0
  8 10  1  0
 10 11  1  0
 11 12  1  0
 12 13  1  0
 13 14  1  0
 13 15  1  0
 15 16  1  0
 16 17  1  0
 17 18  1  0
 18 19  1  0
 19 20  1  0
 17  2  1  0
 18  5  1  0
 18 11  1  0
 20 13  1  0
M  END
$$$$
